<?xml version="1.0" encoding="UTF-8"?> <nodes> <!-- Nodo de entrada por el oeste (para el carril C1) --> <node id="n1" x="0.0" y="50.0" type="priority"/> <!-- Nodo central con semáforo --> <node id="n2" x="50.0" y="50.0" type="traffic_light"/> <!-- Nodo de salida hacia el este --> <node id="n3" x="100.0" y="50.0" type="priority"/> <!-- Nodo de entrada por el norte (para el carril C2) --> <node id="n4" x="50.0" y="100.0" type="priority"/> <!-- Nodo de salida hacia el sur --> <node id="n5" x="50.0" y="0.0" type="priority"/> </nodes>