<?xml version="1.0" encoding="UTF-8"?>

<!-- generated on 2025-03-24 15:53:04 by Eclipse SUMO netconvert Version 1.18.0
<configuration xmlns:xsi="http://www.w3.org/2001/XMLSchema-instance" xsi:noNamespaceSchemaLocation="http://sumo.dlr.de/xsd/netconvertConfiguration.xsd">

    <input>
        <node-files value="nodes.nod.xml"/>
        <edge-files value="edges.edg.xml"/>
        <connection-files value="connections.con.xml"/>
        <tllogic-files value="tlLogic.add.xml"/>
    </input>

    <output>
        <output-file value="simple.net.xml"/>
    </output>

</configuration>
-->

<net version="1.16" junctionCornerDetail="5" limitTurnSpeed="5.50" xmlns:xsi="http://www.w3.org/2001/XMLSchema-instance" xsi:noNamespaceSchemaLocation="http://sumo.dlr.de/xsd/net_file.xsd">

    <location netOffset="0.00,0.00" convBoundary="0.00,0.00,100.00,100.00" origBoundary="0.00,0.00,100.00,100.00" projParameter="!"/>

    <edge id=":n2_0" function="internal">
        <lane id=":n2_0_0" index="0" speed="13.90" length="11.20" shape="48.40,54.00 48.40,42.80"/>
    </edge>
    <edge id=":n2_1" function="internal">
        <lane id=":n2_1_0" index="0" speed="13.90" length="11.20" shape="42.80,48.40 54.00,48.40"/>
    </edge>

    <edge id="e1" from="n1" to="n2" priority="-1">
        <lane id="e1_0" index="0" speed="13.90" length="42.80" shape="0.00,48.40 42.80,48.40"/>
    </edge>
    <edge id="e2" from="n2" to="n3" priority="-1">
        <lane id="e2_0" index="0" speed="13.90" length="46.00" shape="54.00,48.40 100.00,48.40"/>
    </edge>
    <edge id="e3" from="n4" to="n2" priority="-1">
        <lane id="e3_0" index="0" speed="13.90" length="46.00" shape="48.40,100.00 48.40,54.00"/>
    </edge>
    <edge id="e4" from="n2" to="n5" priority="-1">
        <lane id="e4_0" index="0" speed="13.90" length="42.80" shape="48.40,42.80 48.40,0.00"/>
    </edge>

    <tlLogic id="n2" type="static" programID="1" offset="0">
        <phase duration="10" state="Gr"/>
        <phase duration="4"  state="yr"/>
        <phase duration="10" state="rG"/>
        <phase duration="4"  state="ry"/>
    </tlLogic>

    <junction id="n1" type="dead_end" x="0.00" y="50.00" incLanes="" intLanes="" shape="0.00,50.00 0.00,46.80"/>
    <junction id="n2" type="traffic_light" x="50.00" y="50.00" incLanes="e3_0 e1_0" intLanes=":n2_0_0 :n2_1_0" shape="46.80,54.00 50.00,54.00 50.44,51.78 51.00,51.00 51.78,50.44 52.78,50.11 54.00,50.00 54.00,46.80 51.78,46.36 51.00,45.80 50.44,45.02 50.11,44.02 50.00,42.80 46.80,42.80 46.36,45.02 45.80,45.80 45.02,46.36 44.02,46.69 42.80,46.80 42.80,50.00 45.02,50.44 45.80,51.00 46.36,51.78 46.69,52.78">
        <request index="0" response="10" foes="10" cont="0"/>
        <request index="1" response="00" foes="01" cont="0"/>
    </junction>
    <junction id="n3" type="dead_end" x="100.00" y="50.00" incLanes="e2_0" intLanes="" shape="100.00,46.80 100.00,50.00"/>
    <junction id="n4" type="dead_end" x="50.00" y="100.00" incLanes="" intLanes="" shape="50.00,100.00 46.80,100.00"/>
    <junction id="n5" type="dead_end" x="50.00" y="0.00" incLanes="e4_0" intLanes="" shape="46.80,0.00 50.00,0.00"/>

    <connection from="e1" to="e2" fromLane="0" toLane="0" via=":n2_1_0" tl="n2" linkIndex="1" dir="s" state="O"/>
    <connection from="e3" to="e4" fromLane="0" toLane="0" via=":n2_0_0" tl="n2" linkIndex="0" dir="s" state="o"/>

    <connection from=":n2_0" to="e4" fromLane="0" toLane="0" dir="s" state="M"/>
    <connection from=":n2_1" to="e2" fromLane="0" toLane="0" dir="s" state="M"/>

</net>
