<?xml version="1.0" encoding="UTF-8"?> <additional> <!-- Definición del semáforo en el nodo n2. Se controlan dos entradas: e1 (entrada desde el oeste, asociada a C1) y e3 (entrada desde el norte, asociada a C2). --> <tlLogic id="n2" type="static" programID="1" offset="0"> <!-- Fase 0: verde para C1 (e1) y rojo para C2 (e3) --> <phase duration="10" state="Gr"/> <!-- Fase 1: rojo para C1 y verde para C2 --> <phase duration="10" state="rG"/> <!-- Fase 2: fase intermedia para transición (opcional) --> <phase duration="4" state="yy"/> </tlLogic> </additional>