<?xml version="1.0" encoding="UTF-8"?> <edges> <!-- Arista de entrada desde el oeste (C1) hacia la intersecci贸n --> <edge id="e1" from="n1" to="n2" numLanes="1" speed="13.9"/> <!-- Arista de salida desde la intersecci贸n hacia el este --> <edge id="e2" from="n2" to="n3" numLanes="1" speed="13.9"/> <!-- Arista de entrada desde el norte (C2) hacia la intersecci贸n --> <edge id="e3" from="n4" to="n2" numLanes="1" speed="13.9"/> <!-- Arista de salida desde la intersecci贸n hacia el sur --> <edge id="e4" from="n2" to="n5" numLanes="1" speed="13.9"/> </edges>